/*--------------------------------*- C++ -*----------------------------------*\
| =========                 |                                                 |
| \\      /  F ield         | OpenFOAM                                        |
|  \\    /   O peration     | blockMeshDict                                   |
|   \\  /    A nd           | 2D converging-diverging Laval nozzle            |
|    \\/     M anipulation  |                                                 |
\*---------------------------------------------------------------------------*/

FoamFile
{
    version     2.0;
    format      ascii;
    class       dictionary;
    object      blockMeshDict;
}

convertToMeters 1;

vertices
(
    (0.000 -0.0200 -0.0005)
    (0.000  0.0000 -0.0005)
    (0.000  0.0200 -0.0005)
    (0.000 -0.0200  0.0005)
    (0.000  0.0000  0.0005)
    (0.000  0.0200  0.0005)

    (0.012 -0.0185 -0.0005)
    (0.012  0.0000 -0.0005)
    (0.012  0.0185 -0.0005)
    (0.012 -0.0185  0.0005)
    (0.012  0.0000  0.0005)
    (0.012  0.0185  0.0005)

    (0.024 -0.0155 -0.0005)
    (0.024  0.0000 -0.0005)
    (0.024  0.0155 -0.0005)
    (0.024 -0.0155  0.0005)
    (0.024  0.0000  0.0005)
    (0.024  0.0155  0.0005)

    (0.036 -0.0122 -0.0005)
    (0.036  0.0000 -0.0005)
    (0.036  0.0122 -0.0005)
    (0.036 -0.0122  0.0005)
    (0.036  0.0000  0.0005)
    (0.036  0.0122  0.0005)

    (0.045 -0.0104 -0.0005)
    (0.045  0.0000 -0.0005)
    (0.045  0.0104 -0.0005)
    (0.045 -0.0104  0.0005)
    (0.045  0.0000  0.0005)
    (0.045  0.0104  0.0005)

    (0.050 -0.0100 -0.0005)
    (0.050  0.0000 -0.0005)
    (0.050  0.0100 -0.0005)
    (0.050 -0.0100  0.0005)
    (0.050  0.0000  0.0005)
    (0.050  0.0100  0.0005)

    (0.055 -0.0105 -0.0005)
    (0.055  0.0000 -0.0005)
    (0.055  0.0105 -0.0005)
    (0.055 -0.0105  0.0005)
    (0.055  0.0000  0.0005)
    (0.055  0.0105  0.0005)

    (0.070 -0.0140 -0.0005)
    (0.070  0.0000 -0.0005)
    (0.070  0.0140 -0.0005)
    (0.070 -0.0140  0.0005)
    (0.070  0.0000  0.0005)
    (0.070  0.0140  0.0005)

    (0.085 -0.0185 -0.0005)
    (0.085  0.0000 -0.0005)
    (0.085  0.0185 -0.0005)
    (0.085 -0.0185  0.0005)
    (0.085  0.0000  0.0005)
    (0.085  0.0185  0.0005)

    (0.100 -0.0225 -0.0005)
    (0.100  0.0000 -0.0005)
    (0.100  0.0225 -0.0005)
    (0.100 -0.0225  0.0005)
    (0.100  0.0000  0.0005)
    (0.100  0.0225  0.0005)

    (0.120 -0.0250 -0.0005)
    (0.120  0.0000 -0.0005)
    (0.120  0.0250 -0.0005)
    (0.120 -0.0250  0.0005)
    (0.120  0.0000  0.0005)
    (0.120  0.0250  0.0005)
);

blocks
(
    hex (0 6 7 1 3 9 10 4)       (45 70 1) simpleGrading (0.75 4.0 1)
    hex (6 12 13 7 9 15 16 10)    (45 70 1) simpleGrading (0.65 4.0 1)
    hex (12 18 19 13 15 21 22 16) (55 70 1) simpleGrading (0.55 4.0 1)
    hex (18 24 25 19 21 27 28 22) (60 70 1) simpleGrading (0.45 4.0 1)
    hex (24 30 31 25 27 33 34 28) (65 70 1) simpleGrading (0.35 4.0 1)

    hex (30 36 37 31 33 39 40 34) (65 70 1) simpleGrading (2.80 4.0 1)
    hex (36 42 43 37 39 45 46 40) (60 70 1) simpleGrading (2.20 4.0 1)
    hex (42 48 49 43 45 51 52 46) (45 70 1) simpleGrading (1.70 4.0 1)
    hex (48 54 55 49 51 57 58 52) (35 70 1) simpleGrading (1.35 4.0 1)
    hex (54 60 61 55 57 63 64 58) (25 70 1) simpleGrading (1.15 4.0 1)

    hex (1 7 8 2 4 10 11 5)       (45 70 1) simpleGrading (0.75 0.25 1)
    hex (7 13 14 8 10 16 17 11)   (45 70 1) simpleGrading (0.65 0.25 1)
    hex (13 19 20 14 16 22 23 17) (55 70 1) simpleGrading (0.55 0.25 1)
    hex (19 25 26 20 22 28 29 23) (60 70 1) simpleGrading (0.45 0.25 1)
    hex (25 31 32 26 28 34 35 29) (65 70 1) simpleGrading (0.35 0.25 1)

    hex (31 37 38 32 34 40 41 35) (65 70 1) simpleGrading (2.80 0.25 1)
    hex (37 43 44 38 40 46 47 41) (60 70 1) simpleGrading (2.20 0.25 1)
    hex (43 49 50 44 46 52 53 47) (45 70 1) simpleGrading (1.70 0.25 1)
    hex (49 55 56 50 52 58 59 53) (35 70 1) simpleGrading (1.35 0.25 1)
    hex (55 61 62 56 58 64 65 59) (25 70 1) simpleGrading (1.15 0.25 1)
);

edges
(
    spline 0 6   ((0.006 -0.0196 -0.0005))
    spline 3 9   ((0.006 -0.0196  0.0005))
    spline 2 8   ((0.006  0.0196 -0.0005))
    spline 5 11  ((0.006  0.0196  0.0005))
    spline 6 12  ((0.018 -0.0172 -0.0005))
    spline 9 15  ((0.018 -0.0172  0.0005))
    spline 8 14  ((0.018  0.0172 -0.0005))
    spline 11 17 ((0.018  0.0172  0.0005))
    spline 12 18 ((0.030 -0.0137 -0.0005))
    spline 15 21 ((0.030 -0.0137  0.0005))
    spline 14 20 ((0.030  0.0137 -0.0005))
    spline 17 23 ((0.030  0.0137  0.0005))
    spline 18 24 ((0.0405 -0.0111 -0.0005))
    spline 21 27 ((0.0405 -0.0111  0.0005))
    spline 20 26 ((0.0405  0.0111 -0.0005))
    spline 23 29 ((0.0405  0.0111  0.0005))
    spline 24 30 ((0.0475 -0.0101 -0.0005))
    spline 27 33 ((0.0475 -0.0101  0.0005))
    spline 26 32 ((0.0475  0.0101 -0.0005))
    spline 29 35 ((0.0475  0.0101  0.0005))
    spline 30 36 ((0.0525 -0.0101 -0.0005))
    spline 33 39 ((0.0525 -0.0101  0.0005))
    spline 32 38 ((0.0525  0.0101 -0.0005))
    spline 35 41 ((0.0525  0.0101  0.0005))
    spline 36 42 ((0.0625 -0.0120 -0.0005))
    spline 39 45 ((0.0625 -0.0120  0.0005))
    spline 38 44 ((0.0625  0.0120 -0.0005))
    spline 41 47 ((0.0625  0.0120  0.0005))
    spline 42 48 ((0.0775 -0.0161 -0.0005))
    spline 45 51 ((0.0775 -0.0161  0.0005))
    spline 44 50 ((0.0775  0.0161 -0.0005))
    spline 47 53 ((0.0775  0.0161  0.0005))
    spline 48 54 ((0.0925 -0.0208 -0.0005))
    spline 51 57 ((0.0925 -0.0208  0.0005))
    spline 50 56 ((0.0925  0.0208 -0.0005))
    spline 53 59 ((0.0925  0.0208  0.0005))
    spline 54 60 ((0.110 -0.0242 -0.0005))
    spline 57 63 ((0.110 -0.0242  0.0005))
    spline 56 62 ((0.110  0.0242 -0.0005))
    spline 59 65 ((0.110  0.0242  0.0005))
);

boundary
(
    inlet
    {
        type patch;
        faces
        (
            (0 1 4 3)
            (1 2 5 4)
        );
    }

    outlet
    {
        type patch;
        faces
        (
            (60 63 64 61)
            (61 64 65 62)
        );
    }

    lowerWall
    {
        type wall;
        faces
        (
            (0 3 9 6)
            (6 9 15 12)
            (12 15 21 18)
            (18 21 27 24)
            (24 27 33 30)
            (30 33 39 36)
            (36 39 45 42)
            (42 45 51 48)
            (48 51 57 54)
            (54 57 63 60)
        );
    }

    upperWall
    {
        type wall;
        faces
        (
            (2 8 11 5)
            (8 14 17 11)
            (14 20 23 17)
            (20 26 29 23)
            (26 32 35 29)
            (32 38 41 35)
            (38 44 47 41)
            (44 50 53 47)
            (50 56 59 53)
            (56 62 65 59)
        );
    }

    frontAndBack
    {
        type empty;
        faces
        (
            (0 6 7 1)
            (6 12 13 7)
            (12 18 19 13)
            (18 24 25 19)
            (24 30 31 25)
            (30 36 37 31)
            (36 42 43 37)
            (42 48 49 43)
            (48 54 55 49)
            (54 60 61 55)
            (1 7 8 2)
            (7 13 14 8)
            (13 19 20 14)
            (19 25 26 20)
            (25 31 32 26)
            (31 37 38 32)
            (37 43 44 38)
            (43 49 50 44)
            (49 55 56 50)
            (55 61 62 56)
            (3 4 10 9)
            (9 10 16 15)
            (15 16 22 21)
            (21 22 28 27)
            (27 28 34 33)
            (33 34 40 39)
            (39 40 46 45)
            (45 46 52 51)
            (51 52 58 57)
            (57 58 64 63)
            (4 5 11 10)
            (10 11 17 16)
            (16 17 23 22)
            (22 23 29 28)
            (28 29 35 34)
            (34 35 41 40)
            (40 41 47 46)
            (46 47 53 52)
            (52 53 59 58)
            (58 59 65 64)
        );
    }
);

mergePatchPairs
(
);
